ipss.test.plugin.core/testData/bpa/eqg017_omib.OUT
                                                      * * * 输 入 和 初 始 化 信 息 * * *                      Date: 2011-06-23

START RUN WORKING SIZE =    0 NAME=
ENTERING ROUTINE SWINGM
     PSD-BPA暂态稳定程序
     版本号  : 4.10.11
     编译时间: 2009-02-03
CASE OMIB
---- ----------    -    --------- --------
     INEWTS = 1--NETWORK SOLUTION USES THE Y MATRIX.
ENTERING ROUTINE TAPEWK
  POWER FLOW CASE ( OMIB       ) IS BEING PROCESSED.
ENTERING ROUTINE INPUT1
  SWING CASE eqg017_omi EXECUTED ON 2011-06-23 USING VERSION 4.10.11
  20000 BUS POWER FLOW CASE(OMIB      ) EXECUTED ON 2011-06-23
INPUT DATA CARDS
LS  Bus2    15.0  infBus  15.0     1   10
LS  Bus2    15.0  infBus  15.0     -1  15
                        ***********************************************
                                             SORTED LS CARDS
LS  Bus2    15.0  infBus  15.0     1   10
LS  Bus2    15.0  infBus  15.0     -1  15
FF          500                                          1         1
ILIM       =         25
TOLI       =  0.0100000
START TIME =       0.00
DELTA TIME =       1.00
END   TIME =     500.00
DELANG     =  0.0017450
DCITOL     =  8.0000000
DMPMLT     =  1.0000000
DTC        =  1.0000000
ISTP       =         15
BASE HZ    =      50.00
ENTERING ROUTINE INPUT1
SUBROUTINE INPUT1 HAS BEEN PROCESSED.
ENTERING ROUTINE INPUT2
*** WARNING   稳定数据中的零序数据XO\XR\LO\LO+\LM，如果潮流没有对应支路或节点，将自动删除。（DEBUG卡49列填1可显示详细提示信息）
ENTERING ROUTINE LODINP
ENTERING ROUTINE ZNOINP
SUBROUTINE INPUT2 HAS BEEN PROCESSED.
ENTERING ROUTINE INPUT3
SUBROUTINE INPUT3

*** WARNING   稳定数据中的发电机、马达，如果潮流中有功出力为0或不存在，将自动删除。（DEBUG卡48列填1可显示详细提示信息）
*** WARNING   发电机"infBus    15.0 "是无穷大节点。
SUBROUTINE INPUT3 HAS BEEN PROCESSED.
ENTERING ROUTINE INITL1
ENTERING ROUTINE COMBINE_AND_MODIFY_FAULT
SUBROUTINE INITL1 HAS BEEN PROCESSED.
ENTERING ROUTINE INITL2
ENTERING ROUTINE DCINP
SUBROUTINE DCINP
SUBROUTINE I N I T L 2 HAS BEEN PROCESSED

ENTERING ROUTINE INITL3
SUBROUTINE INITL3 HAS BEEN PROCESSED.
ENTERING ROUTINE INITL4
ENTERING ROUTINE FORM_NEG_NETWORK_MATRIX
ENTERING ROUTINE FORM_ZERO_NETWORK_MATRIX
ENTERING ROUTINE LSCHK
SUBROUTINE INITL4 HAS BEEN PROCESSED.
NO DATA ERRORS HAVE BEEN FOUND IN OVERLAYS 3 OR 4.


SWING CASE: eqg017_omi POWERFLOW CASE: OMIB                * * *  计 算 过 程 信 息  * * *                     Date: 2011-06-23

ENTERING ROUTINE REDUCE
ENTERING ROUTINE REDUCE
ENTERING ROUTINE REDUCE
ENTERING ROUTINE REDUCE
计算时间达到，稳定计算完毕。
总的迭代次数为 1027


SWING CASE: eqg017_omi POWERFLOW CASE: OMIB               * * *  输 出 信 息  * * *                            Date: 2011-06-23

 
 
 * 发电机"Gen1      18.0 "输出数据列表
 
     功角        (度)              最大值 =    36.2969/  418.0          最小值 =    14.4417/  321.0          参考发电机    infBus    15.0  
     0.0   25.2307       0.0   25.2307       1.0   25.2307       2.0   25.2307       3.0   25.2307       4.0   25.2307       5.0   25.2307       6.0   25.2307
     7.0   25.2307       8.0   25.2307       9.0   25.2307      10.0   25.2307      10.0   25.2307      11.0   25.2651      12.0   25.3706      13.0   25.5515
    14.0   25.8107      15.0   26.1500      15.0   26.1500      16.0   26.5355      17.0   26.9297      18.0   27.3273      19.0   27.7233      20.0   28.1141
    21.0   28.4964      22.0   28.8677      23.0   29.2259      24.0   29.5694      25.0   29.8970      26.0   30.2077      27.0   30.5007      28.0   30.7756
    29.0   31.0318      30.0   31.2693      31.0   31.4879      32.0   31.6875      33.0   31.8683      34.0   32.0303      35.0   32.1737      36.0   32.2987
    37.0   32.4055      38.0   32.4945      39.0   32.5658      40.0   32.6199      41.0   32.6571      42.0   32.6776      43.0   32.6819      44.0   32.6703
    45.0   32.6432      46.0   32.6009      47.0   32.5439      48.0   32.4726      49.0   32.3872      50.0   32.2883      51.0   32.1762      52.0   32.0513
    53.0   31.9140      54.0   31.7648      55.0   31.6040      56.0   31.4320      57.0   31.2492      58.0   31.0561      59.0   30.8530      60.0   30.6404
    61.0   30.4187      62.0   30.1882      63.0   29.9495      64.0   29.7029      65.0   29.4488      66.0   29.1877      67.0   28.9199      68.0   28.6459
    69.0   28.3661      70.0   28.0810      71.0   27.7908      72.0   27.4962      73.0   27.1974      74.0   26.8949      75.0   26.5891      76.0   26.2804
    77.0   25.9693      78.0   25.6561      79.0   25.3413      80.0   25.0254      81.0   24.7086      82.0   24.3914      83.0   24.0742      84.0   23.7574
    85.0   23.4415      86.0   23.1267      87.0   22.8136      88.0   22.5025      89.0   22.1937      90.0   21.8877      91.0   21.5848      92.0   21.2855
    93.0   20.9900      94.0   20.6987      95.0   20.4120      96.0   20.1303      97.0   19.8538      98.0   19.5828      99.0   19.3179     100.0   19.0591
   101.0   18.8069     102.0   18.5615     103.0   18.3233     104.0   18.0925     105.0   17.8693     106.0   17.6542     107.0   17.4472     108.0   17.2486
   109.0   17.0588     110.0   16.8778     111.0   16.7060     112.0   16.5434     113.0   16.3904     114.0   16.2470     115.0   16.1135     116.0   15.9900
   117.0   15.8765     118.0   15.7734     119.0   15.6806     120.0   15.5983     121.0   15.5266     122.0   15.4656     123.0   15.4152     124.0   15.3757
   125.0   15.3469     126.0   15.3290     127.0   15.3220     128.0   15.3259     129.0   15.3406     130.0   15.3662     131.0   15.4026     132.0   15.4497
   133.0   15.5076     134.0   15.5761     135.0   15.6552     136.0   15.7448     137.0   15.8448     138.0   15.9550     139.0   16.0754     140.0   16.2057
   141.0   16.3459     142.0   16.4958     143.0   16.6553     144.0   16.8241     145.0   17.0020     146.0   17.1889     147.0   17.3846     148.0   17.5888
   149.0   17.8013     150.0   18.0218     151.0   18.2502     152.0   18.4862     153.0   18.7295     154.0   18.9799     155.0   19.2370     156.0   19.5007
   157.0   19.7705     158.0   20.0463     159.0   20.3277     160.0   20.6144     161.0   20.9062     162.0   21.2026     163.0   21.5034     164.0   21.8083
   165.0   22.1168     166.0   22.4288     167.0   22.7439     168.0   23.0617     169.0   23.3819     170.0   23.7042     171.0   24.0282     172.0   24.3536
   173.0   24.6800     174.0   25.0072     175.0   25.3347     176.0   25.6622     177.0   25.9894     178.0   26.3160     179.0   26.6415     180.0   26.9658
   181.0   27.2883     182.0   27.6089     183.0   27.9271     184.0   28.2427     185.0   28.5554     186.0   28.8647     187.0   29.1704     188.0   29.4722
   189.0   29.7697     190.0   30.0627     191.0   30.3509     192.0   30.6340     193.0   30.9116     194.0   31.1836     195.0   31.4496     196.0   31.7093
   197.0   31.9626     198.0   32.2091     199.0   32.4486     200.0   32.6808     201.0   32.9055     202.0   33.1225     203.0   33.3316     204.0   33.5326
   205.0   33.7251     206.0   33.9092     207.0   34.0844     208.0   34.2508     209.0   34.4081     210.0   34.5561     211.0   34.6946     212.0   34.8237
   213.0   34.9430     214.0   35.0525     215.0   35.1520     216.0   35.2415     217.0   35.3208     218.0   35.3898     219.0   35.4485     220.0   35.4969
   221.0   35.5347     222.0   35.5620     223.0   35.5788     224.0   35.5850     225.0   35.5805     226.0   35.5655     227.0   35.5398     228.0   35.5035
   229.0   35.4565     230.0   35.3991     231.0   35.3310     232.0   35.2525     233.0   35.1636     234.0   35.0643     235.0   34.9548     236.0   34.8351
   237.0   34.7053     238.0   34.5655     239.0   34.4159     240.0   34.2565     241.0   34.0877     242.0   33.9093     243.0   33.7218     244.0   33.5252
   245.0   33.3196     246.0   33.1054     247.0   32.8827     248.0   32.6517     249.0   32.4126     250.0   32.1657     251.0   31.9112     252.0   31.6494
   253.0   31.3804     254.0   31.1047     255.0   30.8224     256.0   30.5339     257.0   30.2393     258.0   29.9391     259.0   29.6336     260.0   29.3229
   261.0   29.0076     262.0   28.6878     263.0   28.3639     264.0   28.0363     265.0   27.7052     266.0   27.3711     267.0   27.0343     268.0   26.6951
   269.0   26.3540     270.0   26.0111     271.0   25.6671     272.0   25.3221     273.0   24.9766     274.0   24.6309     275.0   24.2855     276.0   23.9406
   277.0   23.5967     278.0   23.2541     279.0   22.9133     280.0   22.5745     281.0   22.2382     282.0   21.9047     283.0   21.5745     284.0   21.2478
   285.0   20.9250     286.0   20.6065     287.0   20.2927     288.0   19.9839     289.0   19.6804     290.0   19.3825     291.0   19.0907     292.0   18.8053
   293.0   18.5265     294.0   18.2546     295.0   17.9901     296.0   17.7331     297.0   17.4840     298.0   17.2430     299.0   17.0105     300.0   16.7866
   301.0   16.5717     302.0   16.3660     303.0   16.1696     304.0   15.9830     305.0   15.8061     306.0   15.6393     307.0   15.4827     308.0   15.3365
   309.0   15.2009     310.0   15.0761     311.0   14.9621     312.0   14.8591     313.0   14.7672     314.0   14.6865     315.0   14.6171     316.0   14.5591
   317.0   14.5125     318.0   14.4775     319.0   14.4540     320.0   14.4420     321.0   14.4417     322.0   14.4529     323.0   14.4756     324.0   14.5099
   325.0   14.5557     326.0   14.6130     327.0   14.6816     328.0   14.7615     329.0   14.8526     330.0   14.9549     331.0   15.0681     332.0   15.1922
   333.0   15.3270     334.0   15.4725     335.0   15.6283     336.0   15.7944     337.0   15.9705     338.0   16.1565     339.0   16.3522     340.0   16.5574
   341.0   16.7717     342.0   16.9951     343.0   17.2271     344.0   17.4677     345.0   17.7166     346.0   17.9733     347.0   18.2378     348.0   18.5097
   349.0   18.7886     350.0   19.0744     351.0   19.3667     352.0   19.6651     353.0   19.9695     354.0   20.2793     355.0   20.5944     356.0   20.9144
   357.0   21.2389     358.0   21.5675     359.0   21.9001     360.0   22.2361     361.0   22.5753     362.0   22.9173     363.0   23.2618     364.0   23.6083
   365.0   23.9565     366.0   24.3061     367.0   24.6567     368.0   25.0079     369.0   25.3594     370.0   25.7108     371.0   26.0617     372.0   26.4118
   373.0   26.7608     374.0   27.1082     375.0   27.4537     376.0   27.7970     377.0   28.1377     378.0   28.4755     379.0   28.8100     380.0   29.1408
   381.0   29.4678     382.0   29.7904     383.0   30.1085     384.0   30.4216     385.0   30.7295     386.0   31.0318     387.0   31.3283     388.0   31.6186
   389.0   31.9025     390.0   32.1796     391.0   32.4498     392.0   32.7126     393.0   32.9680     394.0   33.2155     395.0   33.4550     396.0   33.6862
   397.0   33.9088     398.0   34.1227     399.0   34.3277     400.0   34.5235     401.0   34.7099     402.0   34.8868     403.0   35.0539     404.0   35.2111
   405.0   35.3583     406.0   35.4951     407.0   35.6217     408.0   35.7377     409.0   35.8430     410.0   35.9377     411.0   36.0214     412.0   36.0942
   413.0   36.1560     414.0   36.2066     415.0   36.2461     416.0   36.2743     417.0   36.2913     418.0   36.2969     419.0   36.2912     420.0   36.2742
   421.0   36.2458     422.0   36.2061     423.0   36.1551     424.0   36.0927     425.0   36.0192     426.0   35.9345     427.0   35.8386     428.0   35.7317
   429.0   35.6138     430.0   35.4851     431.0   35.3456     432.0   35.1955     433.0   35.0348     434.0   34.8639     435.0   34.6827     436.0   34.4914
   437.0   34.2903     438.0   34.0795     439.0   33.8592     440.0   33.6297     441.0   33.3910     442.0   33.1436     443.0   32.8875     444.0   32.6230
   445.0   32.3505     446.0   32.0701     447.0   31.7821     448.0   31.4869     449.0   31.1846     450.0   30.8757     451.0   30.5604     452.0   30.2390
   453.0   29.9119     454.0   29.5794     455.0   29.2418     456.0   28.8995     457.0   28.5529     458.0   28.2022     459.0   27.8479     460.0   27.4903
   461.0   27.1299     462.0   26.7669     463.0   26.4019     464.0   26.0350     465.0   25.6669     466.0   25.2978     467.0   24.9281     468.0   24.5583
   469.0   24.1888     470.0   23.8199     471.0   23.4520     472.0   23.0856     473.0   22.7211     474.0   22.3588     475.0   21.9992     476.0   21.6426
   477.0   21.2895     478.0   20.9403     479.0   20.5952     480.0   20.2548     481.0   19.9194     482.0   19.5894     483.0   19.2651     484.0   18.9469
   485.0   18.6352     486.0   18.3303     487.0   18.0326     488.0   17.7424     489.0   17.4600     490.0   17.1857     491.0   16.9199     492.0   16.6629
   493.0   16.4149     494.0   16.1763     495.0   15.9472     496.0   15.7280     497.0   15.5189     498.0   15.3201     499.0   15.1319     500.0   14.9545
 
   速度偏差      (Hz)              最大值 =     0.0553/   18.0          最小值 =    -0.0514/  467.0
     0.0    0.0000       0.0    0.0000       1.0    0.0000       2.0    0.0000       3.0    0.0000       4.0    0.0000       5.0    0.0000       6.0    0.0000
     7.0    0.0000       8.0    0.0000       9.0    0.0000      10.0    0.0000      10.0    0.0000      11.0    0.0095      12.0    0.0198      13.0    0.0305
    14.0    0.0415      15.0    0.0527      15.0    0.0527      16.0    0.0544      17.0    0.0552      18.0    0.0553      19.0    0.0548      20.0    0.0538
    21.0    0.0524      22.0    0.0507      23.0    0.0488      24.0    0.0466      25.0    0.0444      26.0    0.0419      27.0    0.0394      28.0    0.0369
    29.0    0.0343      30.0    0.0317      31.0    0.0290      32.0    0.0264      33.0    0.0238      34.0    0.0212      35.0    0.0186      36.0    0.0161
    37.0    0.0136      38.0    0.0111      39.0    0.0087      40.0    0.0063      41.0    0.0040      42.0    0.0017      43.0   -0.0005      44.0   -0.0027
    45.0   -0.0048      46.0   -0.0069      47.0   -0.0089      48.0   -0.0109      49.0   -0.0128      50.0   -0.0147      51.0   -0.0165      52.0   -0.0182
    53.0   -0.0199      54.0   -0.0215      55.0   -0.0231      56.0   -0.0247      57.0   -0.0261      58.0   -0.0275      59.0   -0.0289      60.0   -0.0302
    61.0   -0.0314      62.0   -0.0326      63.0   -0.0337      64.0   -0.0348      65.0   -0.0358      66.0   -0.0367      67.0   -0.0376      68.0   -0.0385
    69.0   -0.0392      70.0   -0.0400      71.0   -0.0406      72.0   -0.0412      73.0   -0.0418      74.0   -0.0423      75.0   -0.0427      76.0   -0.0431
    77.0   -0.0434      78.0   -0.0436      79.0   -0.0438      80.0   -0.0440      81.0   -0.0440      82.0   -0.0441      83.0   -0.0440      84.0   -0.0440
    85.0   -0.0438      86.0   -0.0436      87.0   -0.0434      88.0   -0.0431      89.0   -0.0427      90.0   -0.0423      91.0   -0.0418      92.0   -0.0413
    93.0   -0.0408      94.0   -0.0401      95.0   -0.0395      96.0   -0.0388      97.0   -0.0380      98.0   -0.0372      99.0   -0.0364     100.0   -0.0355
   101.0   -0.0346     102.0   -0.0336     103.0   -0.0326     104.0   -0.0315     105.0   -0.0304     106.0   -0.0293     107.0   -0.0282     108.0   -0.0270
   109.0   -0.0258     110.0   -0.0245     111.0   -0.0232     112.0   -0.0219     113.0   -0.0206     114.0   -0.0192     115.0   -0.0179     116.0   -0.0165
   117.0   -0.0150     118.0   -0.0136     119.0   -0.0122     120.0   -0.0107     121.0   -0.0092     122.0   -0.0077     123.0   -0.0062     124.0   -0.0047
   125.0   -0.0032     126.0   -0.0017     127.0   -0.0002     128.0    0.0013     129.0    0.0028     130.0    0.0043     131.0    0.0058     132.0    0.0073
   133.0    0.0088     134.0    0.0103     135.0    0.0117     136.0    0.0132     137.0    0.0146     138.0    0.0160     139.0    0.0174     140.0    0.0188
   141.0    0.0202     142.0    0.0215     143.0    0.0228     144.0    0.0241     145.0    0.0253     146.0    0.0266     147.0    0.0278     148.0    0.0289
   149.0    0.0301     150.0    0.0312     151.0    0.0323     152.0    0.0333     153.0    0.0343     154.0    0.0353     155.0    0.0362     156.0    0.0371
   157.0    0.0379     158.0    0.0387     159.0    0.0395     160.0    0.0402     161.0    0.0409     162.0    0.0415     163.0    0.0421     164.0    0.0426
   165.0    0.0431     166.0    0.0436     167.0    0.0440     168.0    0.0443     169.0    0.0446     170.0    0.0449     171.0    0.0451     172.0    0.0453
   173.0    0.0454     174.0    0.0455     175.0    0.0455     176.0    0.0455     177.0    0.0454     178.0    0.0453     179.0    0.0451     180.0    0.0449
   181.0    0.0447     182.0    0.0444     183.0    0.0440     184.0    0.0436     185.0    0.0432     186.0    0.0427     187.0    0.0422     188.0    0.0416
   189.0    0.0410     190.0    0.0404     191.0    0.0397     192.0    0.0389     193.0    0.0382     194.0    0.0374     195.0    0.0365     196.0    0.0356
   197.0    0.0347     198.0    0.0338     199.0    0.0328     200.0    0.0317     201.0    0.0307     202.0    0.0296     203.0    0.0285     204.0    0.0273
   205.0    0.0262     206.0    0.0250     207.0    0.0237     208.0    0.0225     209.0    0.0212     210.0    0.0199     211.0    0.0186     212.0    0.0172
   213.0    0.0159     214.0    0.0145     215.0    0.0131     216.0    0.0117     217.0    0.0103     218.0    0.0089     219.0    0.0074     220.0    0.0060
   221.0    0.0045     222.0    0.0031     223.0    0.0016     224.0    0.0001     225.0   -0.0014     226.0   -0.0028     227.0   -0.0043     228.0   -0.0058
   229.0   -0.0073     230.0   -0.0087     231.0   -0.0102     232.0   -0.0116     233.0   -0.0131     234.0   -0.0145     235.0   -0.0159     236.0   -0.0173
   237.0   -0.0187     238.0   -0.0201     239.0   -0.0215     240.0   -0.0228     241.0   -0.0241     242.0   -0.0254     243.0   -0.0267     244.0   -0.0279
   245.0   -0.0292     246.0   -0.0304     247.0   -0.0315     248.0   -0.0327     249.0   -0.0338     250.0   -0.0348     251.0   -0.0359     252.0   -0.0369
   253.0   -0.0378     254.0   -0.0388     255.0   -0.0397     256.0   -0.0405     257.0   -0.0413     258.0   -0.0421     259.0   -0.0428     260.0   -0.0435
   261.0   -0.0441     262.0   -0.0447     263.0   -0.0453     264.0   -0.0458     265.0   -0.0462     266.0   -0.0466     267.0   -0.0470     268.0   -0.0473
   269.0   -0.0475     270.0   -0.0477     271.0   -0.0479     272.0   -0.0480     273.0   -0.0480     274.0   -0.0480     275.0   -0.0480     276.0   -0.0478
   277.0   -0.0477     278.0   -0.0475     279.0   -0.0472     280.0   -0.0469     281.0   -0.0465     282.0   -0.0461     283.0   -0.0456     284.0   -0.0451
   285.0   -0.0445     286.0   -0.0439     287.0   -0.0433     288.0   -0.0425     289.0   -0.0418     290.0   -0.0410     291.0   -0.0401     292.0   -0.0392
   293.0   -0.0382     294.0   -0.0373     295.0   -0.0362     296.0   -0.0352     297.0   -0.0340     298.0   -0.0329     299.0   -0.0317     300.0   -0.0305
   301.0   -0.0292     302.0   -0.0279     303.0   -0.0266     304.0   -0.0253     305.0   -0.0239     306.0   -0.0225     307.0   -0.0210     308.0   -0.0196
   309.0   -0.0181     310.0   -0.0166     311.0   -0.0151     312.0   -0.0135     313.0   -0.0120     314.0   -0.0104     315.0   -0.0088     316.0   -0.0073
   317.0   -0.0057     318.0   -0.0041     319.0   -0.0025     320.0   -0.0009     321.0    0.0008     322.0    0.0024     323.0    0.0040     324.0    0.0056
   325.0    0.0072     326.0    0.0087     327.0    0.0103     328.0    0.0119     329.0    0.0134     330.0    0.0150     331.0    0.0165     332.0    0.0180
   333.0    0.0195     334.0    0.0209     335.0    0.0224     336.0    0.0238     337.0    0.0252     338.0    0.0265     339.0    0.0278     340.0    0.0291
   341.0    0.0304     342.0    0.0316     343.0    0.0328     344.0    0.0340     345.0    0.0351     346.0    0.0362     347.0    0.0373     348.0    0.0383
   349.0    0.0392     350.0    0.0402     351.0    0.0410     352.0    0.0419     353.0    0.0427     354.0    0.0434     355.0    0.0441     356.0    0.0448
   357.0    0.0454     358.0    0.0459     359.0    0.0464     360.0    0.0469     361.0    0.0473     362.0    0.0477     363.0    0.0480     364.0    0.0483
   365.0    0.0485     366.0    0.0486     367.0    0.0487     368.0    0.0488     369.0    0.0488     370.0    0.0488     371.0    0.0487     372.0    0.0486
   373.0    0.0484     374.0    0.0481     375.0    0.0478     376.0    0.0475     377.0    0.0471     378.0    0.0467     379.0    0.0462     380.0    0.0457
   381.0    0.0451     382.0    0.0445     383.0    0.0438     384.0    0.0431     385.0    0.0424     386.0    0.0416     387.0    0.0408     388.0    0.0399
   389.0    0.0390     390.0    0.0380     391.0    0.0370     392.0    0.0360     393.0    0.0349     394.0    0.0338     395.0    0.0327     396.0    0.0315
   397.0    0.0303     398.0    0.0291     399.0    0.0278     400.0    0.0265     401.0    0.0252     402.0    0.0239     403.0    0.0225     404.0    0.0211
   405.0    0.0197     406.0    0.0183     407.0    0.0168     408.0    0.0154     409.0    0.0139     410.0    0.0124     411.0    0.0109     412.0    0.0093
   413.0    0.0078     414.0    0.0063     415.0    0.0047     416.0    0.0031     417.0    0.0016     418.0    0.0000     419.0   -0.0016     420.0   -0.0032
   421.0   -0.0047     422.0   -0.0063     423.0   -0.0079     424.0   -0.0094     425.0   -0.0110     426.0   -0.0125     427.0   -0.0141     428.0   -0.0156
   429.0   -0.0171     430.0   -0.0186     431.0   -0.0201     432.0   -0.0216     433.0   -0.0230     434.0   -0.0245     435.0   -0.0259     436.0   -0.0273
   437.0   -0.0286     438.0   -0.0299     439.0   -0.0312     440.0   -0.0325     441.0   -0.0338     442.0   -0.0350     443.0   -0.0362     444.0   -0.0373
   445.0   -0.0384     446.0   -0.0395     447.0   -0.0405     448.0   -0.0415     449.0   -0.0425     450.0   -0.0434     451.0   -0.0442     452.0   -0.0450
   453.0   -0.0458     454.0   -0.0465     455.0   -0.0472     456.0   -0.0479     457.0   -0.0484     458.0   -0.0490     459.0   -0.0494     460.0   -0.0499
   461.0   -0.0502     462.0   -0.0506     463.0   -0.0508     464.0   -0.0511     465.0   -0.0512     466.0   -0.0513     467.0   -0.0514     468.0   -0.0514
   469.0   -0.0513     470.0   -0.0512     471.0   -0.0510     472.0   -0.0508     473.0   -0.0505     474.0   -0.0501     475.0   -0.0497     476.0   -0.0493
   477.0   -0.0488     478.0   -0.0482     479.0   -0.0476     480.0   -0.0469     481.0   -0.0462     482.0   -0.0455     483.0   -0.0446     484.0   -0.0438
   485.0   -0.0428     486.0   -0.0419     487.0   -0.0408     488.0   -0.0398     489.0   -0.0387     490.0   -0.0375     491.0   -0.0363     492.0   -0.0351
   493.0   -0.0338     494.0   -0.0325     495.0   -0.0311     496.0   -0.0298     497.0   -0.0283     498.0   -0.0269     499.0   -0.0254     500.0   -0.0239
 
   励磁电压      (pu)              最大值 =     2.6638/   15.0          最小值 =     1.2304/   31.0
     0.0    1.3904       0.0    1.3904       1.0    1.3904       2.0    1.3904       3.0    1.3904       4.0    1.3904       5.0    1.3904       6.0    1.3904
     7.0    1.3904       8.0    1.3904       9.0    1.3905      10.0    1.3905      10.0    1.3905      11.0    1.9408      12.0    2.2738      13.0    2.4703
    14.0    2.5901      15.0    2.6638      15.0    2.6638      16.0    2.1633      17.0    1.8562      18.0    1.6691      19.0    1.5469      20.0    1.4623
    21.0    1.4009      22.0    1.3550      23.0    1.3202      24.0    1.2937      25.0    1.2736      26.0    1.2585      27.0    1.2475      28.0    1.2397
    29.0    1.2346      30.0    1.2316      31.0    1.2304      32.0    1.2305      33.0    1.2317      34.0    1.2338      35.0    1.2366      36.0    1.2399
    37.0    1.2436      38.0    1.2476      39.0    1.2518      40.0    1.2562      41.0    1.2607      42.0    1.2651      43.0    1.2696      44.0    1.2741
    45.0    1.2784      46.0    1.2828      47.0    1.2870      48.0    1.2911      49.0    1.2951      50.0    1.2989      51.0    1.3027      52.0    1.3063
    53.0    1.3098      54.0    1.3131      55.0    1.3164      56.0    1.3194      57.0    1.3224      58.0    1.3252      59.0    1.3280      60.0    1.3306
    61.0    1.3330      62.0    1.3354      63.0    1.3377      64.0    1.3398      65.0    1.3419      66.0    1.3439      67.0    1.3458      68.0    1.3476
    69.0    1.3493      70.0    1.3509      71.0    1.3525      72.0    1.3540      73.0    1.3555      74.0    1.3568      75.0    1.3582      76.0    1.3594
    77.0    1.3606      78.0    1.3618      79.0    1.3629      80.0    1.3640      81.0    1.3650      82.0    1.3660      83.0    1.3669      84.0    1.3679
    85.0    1.3688      86.0    1.3696      87.0    1.3704      88.0    1.3712      89.0    1.3720      90.0    1.3727      91.0    1.3735      92.0    1.3741
    93.0    1.3748      94.0    1.3755      95.0    1.3761      96.0    1.3767      97.0    1.3773      98.0    1.3779      99.0    1.3784     100.0    1.3790
   101.0    1.3795     102.0    1.3800     103.0    1.3805     104.0    1.3810     105.0    1.3814     106.0    1.3819     107.0    1.3823     108.0    1.3827
   109.0    1.3831     110.0    1.3835     111.0    1.3838     112.0    1.3841     113.0    1.3844     114.0    1.3847     115.0    1.3850     116.0    1.3853
   117.0    1.3855     118.0    1.3857     119.0    1.3859     120.0    1.3861     121.0    1.3863     122.0    1.3865     123.0    1.3866     124.0    1.3868
   125.0    1.3869     126.0    1.3870     127.0    1.3871     128.0    1.3872     129.0    1.3873     130.0    1.3873     131.0    1.3874     132.0    1.3874
   133.0    1.3874     134.0    1.3875     135.0    1.3875     136.0    1.3875     137.0    1.3875     138.0    1.3875     139.0    1.3875     140.0    1.3875
   141.0    1.3874     142.0    1.3874     143.0    1.3874     144.0    1.3874     145.0    1.3874     146.0    1.3874     147.0    1.3874     148.0    1.3874
   149.0    1.3874     150.0    1.3874     151.0    1.3874     152.0    1.3874     153.0    1.3874     154.0    1.3875     155.0    1.3875     156.0    1.3876
   157.0    1.3876     158.0    1.3877     159.0    1.3878     160.0    1.3879     161.0    1.3880     162.0    1.3882     163.0    1.3883     164.0    1.3885
   165.0    1.3887     166.0    1.3889     167.0    1.3891     168.0    1.3893     169.0    1.3896     170.0    1.3898     171.0    1.3901     172.0    1.3904
   173.0    1.3907     174.0    1.3910     175.0    1.3913     176.0    1.3916     177.0    1.3920     178.0    1.3923     179.0    1.3927     180.0    1.3931
   181.0    1.3935     182.0    1.3939     183.0    1.3943     184.0    1.3947     185.0    1.3951     186.0    1.3955     187.0    1.3959     188.0    1.3963
   189.0    1.3967     190.0    1.3972     191.0    1.3976     192.0    1.3980     193.0    1.3984     194.0    1.3988     195.0    1.3992     196.0    1.3996
   197.0    1.4000     198.0    1.4004     199.0    1.4008     200.0    1.4011     201.0    1.4015     202.0    1.4018     203.0    1.4021     204.0    1.4024
   205.0    1.4027     206.0    1.4029     207.0    1.4032     208.0    1.4034     209.0    1.4036     210.0    1.4038     211.0    1.4039     212.0    1.4040
   213.0    1.4041     214.0    1.4042     215.0    1.4043     216.0    1.4043     217.0    1.4043     218.0    1.4043     219.0    1.4042     220.0    1.4042
   221.0    1.4041     222.0    1.4040     223.0    1.4038     224.0    1.4037     225.0    1.4035     226.0    1.4033     227.0    1.4030     228.0    1.4028
   229.0    1.4025     230.0    1.4022     231.0    1.4018     232.0    1.4015     233.0    1.4011     234.0    1.4007     235.0    1.4003     236.0    1.3999
   237.0    1.3995     238.0    1.3990     239.0    1.3986     240.0    1.3981     241.0    1.3976     242.0    1.3971     243.0    1.3966     244.0    1.3961
   245.0    1.3956     246.0    1.3951     247.0    1.3946     248.0    1.3941     249.0    1.3936     250.0    1.3931     251.0    1.3926     252.0    1.3921
   253.0    1.3916     254.0    1.3911     255.0    1.3906     256.0    1.3901     257.0    1.3896     258.0    1.3892     259.0    1.3887     260.0    1.3883
   261.0    1.3878     262.0    1.3874     263.0    1.3870     264.0    1.3866     265.0    1.3863     266.0    1.3859     267.0    1.3856     268.0    1.3853
   269.0    1.3850     270.0    1.3847     271.0    1.3844     272.0    1.3842     273.0    1.3840     274.0    1.3838     275.0    1.3836     276.0    1.3834
   277.0    1.3833     278.0    1.3832     279.0    1.3831     280.0    1.3830     281.0    1.3830     282.0    1.3829     283.0    1.3829     284.0    1.3829
   285.0    1.3829     286.0    1.3830     287.0    1.3830     288.0    1.3831     289.0    1.3831     290.0    1.3832     291.0    1.3833     292.0    1.3834
   293.0    1.3835     294.0    1.3836     295.0    1.3837     296.0    1.3838     297.0    1.3839     298.0    1.3841     299.0    1.3842     300.0    1.3843
   301.0    1.3845     302.0    1.3846     303.0    1.3847     304.0    1.3849     305.0    1.3850     306.0    1.3851     307.0    1.3852     308.0    1.3853
   309.0    1.3855     310.0    1.3856     311.0    1.3857     312.0    1.3857     313.0    1.3858     314.0    1.3859     315.0    1.3860     316.0    1.3860
   317.0    1.3861     318.0    1.3861     319.0    1.3861     320.0    1.3862     321.0    1.3862     322.0    1.3862     323.0    1.3862     324.0    1.3862
   325.0    1.3861     326.0    1.3861     327.0    1.3861     328.0    1.3861     329.0    1.3860     330.0    1.3860     331.0    1.3859     332.0    1.3859
   333.0    1.3858     334.0    1.3858     335.0    1.3857     336.0    1.3857     337.0    1.3856     338.0    1.3856     339.0    1.3856     340.0    1.3855
   341.0    1.3855     342.0    1.3855     343.0    1.3855     344.0    1.3855     345.0    1.3855     346.0    1.3855     347.0    1.3855     348.0    1.3856
   349.0    1.3856     350.0    1.3857     351.0    1.3858     352.0    1.3859     353.0    1.3860     354.0    1.3861     355.0    1.3863     356.0    1.3864
   357.0    1.3866     358.0    1.3868     359.0    1.3871     360.0    1.3873     361.0    1.3876     362.0    1.3878     363.0    1.3881     364.0    1.3884
   365.0    1.3888     366.0    1.3891     367.0    1.3894     368.0    1.3898     369.0    1.3902     370.0    1.3906     371.0    1.3910     372.0    1.3914
   373.0    1.3918     374.0    1.3923     375.0    1.3927     376.0    1.3932     377.0    1.3936     378.0    1.3941     379.0    1.3946     380.0    1.3951
   381.0    1.3955     382.0    1.3960     383.0    1.3965     384.0    1.3970     385.0    1.3975     386.0    1.3980     387.0    1.3984     388.0    1.3989
   389.0    1.3994     390.0    1.3998     391.0    1.4003     392.0    1.4007     393.0    1.4011     394.0    1.4015     395.0    1.4019     396.0    1.4023
   397.0    1.4027     398.0    1.4030     399.0    1.4033     400.0    1.4036     401.0    1.4039     402.0    1.4042     403.0    1.4044     404.0    1.4046
   405.0    1.4048     406.0    1.4049     407.0    1.4051     408.0    1.4052     409.0    1.4052     410.0    1.4053     411.0    1.4053     412.0    1.4053
   413.0    1.4052     414.0    1.4052     415.0    1.4051     416.0    1.4050     417.0    1.4048     418.0    1.4047     419.0    1.4045     420.0    1.4042
   421.0    1.4040     422.0    1.4037     423.0    1.4034     424.0    1.4030     425.0    1.4027     426.0    1.4023     427.0    1.4019     428.0    1.4015
   429.0    1.4010     430.0    1.4006     431.0    1.4001     432.0    1.3996     433.0    1.3991     434.0    1.3986     435.0    1.3981     436.0    1.3975
   437.0    1.3970     438.0    1.3964     439.0    1.3959     440.0    1.3953     441.0    1.3947     442.0    1.3942     443.0    1.3936     444.0    1.3930
   445.0    1.3924     446.0    1.3919     447.0    1.3913     448.0    1.3908     449.0    1.3902     450.0    1.3897     451.0    1.3892     452.0    1.3887
   453.0    1.3882     454.0    1.3877     455.0    1.3872     456.0    1.3868     457.0    1.3864     458.0    1.3860     459.0    1.3856     460.0    1.3852
   461.0    1.3849     462.0    1.3845     463.0    1.3842     464.0    1.3839     465.0    1.3837     466.0    1.3834     467.0    1.3832     468.0    1.3830
   469.0    1.3828     470.0    1.3827     471.0    1.3825     472.0    1.3824     473.0    1.3824     474.0    1.3823     475.0    1.3823     476.0    1.3822
   477.0    1.3822     478.0    1.3822     479.0    1.3823     480.0    1.3823     481.0    1.3824     482.0    1.3825     483.0    1.3826     484.0    1.3827
   485.0    1.3828     486.0    1.3829     487.0    1.3831     488.0    1.3832     489.0    1.3834     490.0    1.3835     491.0    1.3837     492.0    1.3838
   493.0    1.3840     494.0    1.3841     495.0    1.3843     496.0    1.3845     497.0    1.3846     498.0    1.3848     499.0    1.3849     500.0    1.3851
 
     磁链        (pu)              最大值 =     1.0276/   27.0          最小值 =     1.0073/   15.0
     0.0    1.0170       0.0    1.0170       1.0    1.0170       2.0    1.0170       3.0    1.0170       4.0    1.0170       5.0    1.0170       6.0    1.0170
     7.0    1.0170       8.0    1.0170       9.0    1.0170      10.0    1.0170      10.0    1.0170      11.0    1.0129      12.0    1.0100      13.0    1.0083
    14.0    1.0074      15.0    1.0073      15.0    1.0073      16.0    1.0119      17.0    1.0157      18.0    1.0188      19.0    1.0213      20.0    1.0232
    21.0    1.0247      22.0    1.0258      23.0    1.0265      24.0    1.0271      25.0    1.0274      26.0    1.0276      27.0    1.0276      28.0    1.0275
    29.0    1.0274      30.0    1.0272      31.0    1.0270      32.0    1.0267      33.0    1.0264      34.0    1.0261      35.0    1.0257      36.0    1.0254
    37.0    1.0251      38.0    1.0247      39.0    1.0244      40.0    1.0240      41.0    1.0237      42.0    1.0234      43.0    1.0231      44.0    1.0228
    45.0    1.0225      46.0    1.0222      47.0    1.0220      48.0    1.0217      49.0    1.0215      50.0    1.0212      51.0    1.0210      52.0    1.0208
    53.0    1.0206      54.0    1.0204      55.0    1.0202      56.0    1.0200      57.0    1.0198      58.0    1.0197      59.0    1.0195      60.0    1.0194
    61.0    1.0192      62.0    1.0191      63.0    1.0190      64.0    1.0189      65.0    1.0187      66.0    1.0186      67.0    1.0185      68.0    1.0184
    69.0    1.0184      70.0    1.0183      71.0    1.0182      72.0    1.0181      73.0    1.0180      74.0    1.0180      75.0    1.0179      76.0    1.0179
    77.0    1.0178      78.0    1.0178      79.0    1.0177      80.0    1.0177      81.0    1.0176      82.0    1.0176      83.0    1.0176      84.0    1.0175
    85.0    1.0175      86.0    1.0175      87.0    1.0175      88.0    1.0174      89.0    1.0174      90.0    1.0174      91.0    1.0174      92.0    1.0174
    93.0    1.0173      94.0    1.0173      95.0    1.0173      96.0    1.0173      97.0    1.0173      98.0    1.0173      99.0    1.0173     100.0    1.0173
   101.0    1.0173     102.0    1.0173     103.0    1.0173     104.0    1.0173     105.0    1.0173     106.0    1.0173     107.0    1.0173     108.0    1.0173
   109.0    1.0173     110.0    1.0173     111.0    1.0173     112.0    1.0173     113.0    1.0173     114.0    1.0174     115.0    1.0174     116.0    1.0174
   117.0    1.0174     118.0    1.0174     119.0    1.0174     120.0    1.0174     121.0    1.0174     122.0    1.0174     123.0    1.0174     124.0    1.0174
   125.0    1.0174     126.0    1.0175     127.0    1.0175     128.0    1.0175     129.0    1.0175     130.0    1.0175     131.0    1.0175     132.0    1.0175
   133.0    1.0175     134.0    1.0175     135.0    1.0175     136.0    1.0175     137.0    1.0175     138.0    1.0175     139.0    1.0175     140.0    1.0175
   141.0    1.0175     142.0    1.0175     143.0    1.0175     144.0    1.0175     145.0    1.0175     146.0    1.0175     147.0    1.0175     148.0    1.0175
   149.0    1.0175     150.0    1.0175     151.0    1.0175     152.0    1.0175     153.0    1.0174     154.0    1.0174     155.0    1.0174     156.0    1.0174
   157.0    1.0174     158.0    1.0174     159.0    1.0174     160.0    1.0174     161.0    1.0173     162.0    1.0173     163.0    1.0173     164.0    1.0173
   165.0    1.0173     166.0    1.0172     167.0    1.0172     168.0    1.0172     169.0    1.0172     170.0    1.0172     171.0    1.0171     172.0    1.0171
   173.0    1.0171     174.0    1.0171     175.0    1.0170     176.0    1.0170     177.0    1.0170     178.0    1.0170     179.0    1.0170     180.0    1.0169
   181.0    1.0169     182.0    1.0169     183.0    1.0169     184.0    1.0168     185.0    1.0168     186.0    1.0168     187.0    1.0168     188.0    1.0168
   189.0    1.0167     190.0    1.0167     191.0    1.0167     192.0    1.0167     193.0    1.0167     194.0    1.0166     195.0    1.0166     196.0    1.0166
   197.0    1.0166     198.0    1.0166     199.0    1.0166     200.0    1.0166     201.0    1.0165     202.0    1.0165     203.0    1.0165     204.0    1.0165
   205.0    1.0165     206.0    1.0165     207.0    1.0165     208.0    1.0165     209.0    1.0165     210.0    1.0165     211.0    1.0165     212.0    1.0165
   213.0    1.0165     214.0    1.0165     215.0    1.0165     216.0    1.0165     217.0    1.0165     218.0    1.0165     219.0    1.0165     220.0    1.0165
   221.0    1.0165     222.0    1.0165     223.0    1.0165     224.0    1.0165     225.0    1.0165     226.0    1.0165     227.0    1.0165     228.0    1.0165
   229.0    1.0165     230.0    1.0166     231.0    1.0166     232.0    1.0166     233.0    1.0166     234.0    1.0166     235.0    1.0166     236.0    1.0166
   237.0    1.0167     238.0    1.0167     239.0    1.0167     240.0    1.0167     241.0    1.0167     242.0    1.0167     243.0    1.0167     244.0    1.0168
   245.0    1.0168     246.0    1.0168     247.0    1.0168     248.0    1.0168     249.0    1.0168     250.0    1.0168     251.0    1.0169     252.0    1.0169
   253.0    1.0169     254.0    1.0169     255.0    1.0169     256.0    1.0169     257.0    1.0170     258.0    1.0170     259.0    1.0170     260.0    1.0170
   261.0    1.0170     262.0    1.0170     263.0    1.0170     264.0    1.0171     265.0    1.0171     266.0    1.0171     267.0    1.0171     268.0    1.0171
   269.0    1.0171     270.0    1.0171     271.0    1.0172     272.0    1.0172     273.0    1.0172     274.0    1.0172     275.0    1.0172     276.0    1.0172
   277.0    1.0172     278.0    1.0172     279.0    1.0173     280.0    1.0173     281.0    1.0173     282.0    1.0173     283.0    1.0173     284.0    1.0173
   285.0    1.0173     286.0    1.0173     287.0    1.0173     288.0    1.0174     289.0    1.0174     290.0    1.0174     291.0    1.0174     292.0    1.0174
   293.0    1.0174     294.0    1.0174     295.0    1.0174     296.0    1.0175     297.0    1.0175     298.0    1.0175     299.0    1.0175     300.0    1.0175
   301.0    1.0175     302.0    1.0175     303.0    1.0175     304.0    1.0176     305.0    1.0176     306.0    1.0176     307.0    1.0176     308.0    1.0176
   309.0    1.0176     310.0    1.0176     311.0    1.0176     312.0    1.0176     313.0    1.0176     314.0    1.0177     315.0    1.0177     316.0    1.0177
   317.0    1.0177     318.0    1.0177     319.0    1.0177     320.0    1.0177     321.0    1.0177     322.0    1.0177     323.0    1.0177     324.0    1.0177
   325.0    1.0177     326.0    1.0177     327.0    1.0177     328.0    1.0177     329.0    1.0177     330.0    1.0177     331.0    1.0177     332.0    1.0177
   333.0    1.0177     334.0    1.0177     335.0    1.0177     336.0    1.0177     337.0    1.0177     338.0    1.0177     339.0    1.0177     340.0    1.0177
   341.0    1.0177     342.0    1.0177     343.0    1.0177     344.0    1.0177     345.0    1.0176     346.0    1.0176     347.0    1.0176     348.0    1.0176
   349.0    1.0176     350.0    1.0176     351.0    1.0176     352.0    1.0175     353.0    1.0175     354.0    1.0175     355.0    1.0175     356.0    1.0175
   357.0    1.0174     358.0    1.0174     359.0    1.0174     360.0    1.0174     361.0    1.0173     362.0    1.0173     363.0    1.0173     364.0    1.0173
   365.0    1.0172     366.0    1.0172     367.0    1.0172     368.0    1.0171     369.0    1.0171     370.0    1.0171     371.0    1.0171     372.0    1.0170
   373.0    1.0170     374.0    1.0170     375.0    1.0170     376.0    1.0169     377.0    1.0169     378.0    1.0169     379.0    1.0168     380.0    1.0168
   381.0    1.0168     382.0    1.0168     383.0    1.0168     384.0    1.0167     385.0    1.0167     386.0    1.0167     387.0    1.0167     388.0    1.0166
   389.0    1.0166     390.0    1.0166     391.0    1.0166     392.0    1.0166     393.0    1.0166     394.0    1.0165     395.0    1.0165     396.0    1.0165
   397.0    1.0165     398.0    1.0165     399.0    1.0165     400.0    1.0165     401.0    1.0165     402.0    1.0165     403.0    1.0164     404.0    1.0164
   405.0    1.0164     406.0    1.0164     407.0    1.0164     408.0    1.0164     409.0    1.0164     410.0    1.0164     411.0    1.0164     412.0    1.0164
   413.0    1.0164     414.0    1.0164     415.0    1.0165     416.0    1.0165     417.0    1.0165     418.0    1.0165     419.0    1.0165     420.0    1.0165
   421.0    1.0165     422.0    1.0165     423.0    1.0165     424.0    1.0165     425.0    1.0166     426.0    1.0166     427.0    1.0166     428.0    1.0166
   429.0    1.0166     430.0    1.0166     431.0    1.0166     432.0    1.0167     433.0    1.0167     434.0    1.0167     435.0    1.0167     436.0    1.0167
   437.0    1.0167     438.0    1.0167     439.0    1.0168     440.0    1.0168     441.0    1.0168     442.0    1.0168     443.0    1.0168     444.0    1.0168
   445.0    1.0169     446.0    1.0169     447.0    1.0169     448.0    1.0169     449.0    1.0169     450.0    1.0169     451.0    1.0170     452.0    1.0170
   453.0    1.0170     454.0    1.0170     455.0    1.0170     456.0    1.0170     457.0    1.0171     458.0    1.0171     459.0    1.0171     460.0    1.0171
   461.0    1.0171     462.0    1.0171     463.0    1.0171     464.0    1.0172     465.0    1.0172     466.0    1.0172     467.0    1.0172     468.0    1.0172
   469.0    1.0172     470.0    1.0172     471.0    1.0172     472.0    1.0173     473.0    1.0173     474.0    1.0173     475.0    1.0173     476.0    1.0173
   477.0    1.0173     478.0    1.0173     479.0    1.0173     480.0    1.0174     481.0    1.0174     482.0    1.0174     483.0    1.0174     484.0    1.0174
   485.0    1.0174     486.0    1.0174     487.0    1.0174     488.0    1.0175     489.0    1.0175     490.0    1.0175     491.0    1.0175     492.0    1.0175
   493.0    1.0175     494.0    1.0175     495.0    1.0175     496.0    1.0176     497.0    1.0176     498.0    1.0176     499.0    1.0176     500.0    1.0176
 
   机械功率      (MW)              最大值 =  6008.0000/    0.0          最小值 =  6008.0000/    0.0
     0.0 6008.0000       0.0 6008.0000       1.0 6008.0000       2.0 6008.0000       3.0 6008.0000       4.0 6008.0000       5.0 6008.0000       6.0 6008.0000
     7.0 6008.0000       8.0 6008.0000       9.0 6008.0000      10.0 6008.0000      10.0 6008.0000      11.0 6008.0000      12.0 6008.0000      13.0 6008.0000
    14.0 6008.0000      15.0 6008.0000      15.0 6008.0000      16.0 6008.0000      17.0 6008.0000      18.0 6008.0000      19.0 6008.0000      20.0 6008.0000
    21.0 6008.0000      22.0 6008.0000      23.0 6008.0000      24.0 6008.0000      25.0 6008.0000      26.0 6008.0000      27.0 6008.0000      28.0 6008.0000
    29.0 6008.0000      30.0 6008.0000      31.0 6008.0000      32.0 6008.0000      33.0 6008.0000      34.0 6008.0000      35.0 6008.0000      36.0 6008.0000
    37.0 6008.0000      38.0 6008.0000      39.0 6008.0000      40.0 6008.0000      41.0 6008.0000      42.0 6008.0000      43.0 6008.0000      44.0 6008.0000
    45.0 6008.0000      46.0 6008.0000      47.0 6008.0000      48.0 6008.0000      49.0 6008.0000      50.0 6008.0000      51.0 6008.0000      52.0 6008.0000
    53.0 6008.0000      54.0 6008.0000      55.0 6008.0000      56.0 6008.0000      57.0 6008.0000      58.0 6008.0000      59.0 6008.0000      60.0 6008.0000
    61.0 6008.0000      62.0 6008.0000      63.0 6008.0000      64.0 6008.0000      65.0 6008.0000      66.0 6008.0000      67.0 6008.0000      68.0 6008.0000
    69.0 6008.0000      70.0 6008.0000      71.0 6008.0000      72.0 6008.0000      73.0 6008.0000      74.0 6008.0000      75.0 6008.0000      76.0 6008.0000
    77.0 6008.0000      78.0 6008.0000      79.0 6008.0000      80.0 6008.0000      81.0 6008.0000      82.0 6008.0000      83.0 6008.0000      84.0 6008.0000
    85.0 6008.0000      86.0 6008.0000      87.0 6008.0000      88.0 6008.0000      89.0 6008.0000      90.0 6008.0000      91.0 6008.0000      92.0 6008.0000
    93.0 6008.0000      94.0 6008.0000      95.0 6008.0000      96.0 6008.0000      97.0 6008.0000      98.0 6008.0000      99.0 6008.0000     100.0 6008.0000
   101.0 6008.0000     102.0 6008.0000     103.0 6008.0000     104.0 6008.0000     105.0 6008.0000     106.0 6008.0000     107.0 6008.0000     108.0 6008.0000
   109.0 6008.0000     110.0 6008.0000     111.0 6008.0000     112.0 6008.0000     113.0 6008.0000     114.0 6008.0000     115.0 6008.0000     116.0 6008.0000
   117.0 6008.0000     118.0 6008.0000     119.0 6008.0000     120.0 6008.0000     121.0 6008.0000     122.0 6008.0000     123.0 6008.0000     124.0 6008.0000
   125.0 6008.0000     126.0 6008.0000     127.0 6008.0000     128.0 6008.0000     129.0 6008.0000     130.0 6008.0000     131.0 6008.0000     132.0 6008.0000
   133.0 6008.0000     134.0 6008.0000     135.0 6008.0000     136.0 6008.0000     137.0 6008.0000     138.0 6008.0000     139.0 6008.0000     140.0 6008.0000
   141.0 6008.0000     142.0 6008.0000     143.0 6008.0000     144.0 6008.0000     145.0 6008.0000     146.0 6008.0000     147.0 6008.0000     148.0 6008.0000
   149.0 6008.0000     150.0 6008.0000     151.0 6008.0000     152.0 6008.0000     153.0 6008.0000     154.0 6008.0000     155.0 6008.0000     156.0 6008.0000
   157.0 6008.0000     158.0 6008.0000     159.0 6008.0000     160.0 6008.0000     161.0 6008.0000     162.0 6008.0000     163.0 6008.0000     164.0 6008.0000
   165.0 6008.0000     166.0 6008.0000     167.0 6008.0000     168.0 6008.0000     169.0 6008.0000     170.0 6008.0000     171.0 6008.0000     172.0 6008.0000
   173.0 6008.0000     174.0 6008.0000     175.0 6008.0000     176.0 6008.0000     177.0 6008.0000     178.0 6008.0000     179.0 6008.0000     180.0 6008.0000
   181.0 6008.0000     182.0 6008.0000     183.0 6008.0000     184.0 6008.0000     185.0 6008.0000     186.0 6008.0000     187.0 6008.0000     188.0 6008.0000
   189.0 6008.0000     190.0 6008.0000     191.0 6008.0000     192.0 6008.0000     193.0 6008.0000     194.0 6008.0000     195.0 6008.0000     196.0 6008.0000
   197.0 6008.0000     198.0 6008.0000     199.0 6008.0000     200.0 6008.0000     201.0 6008.0000     202.0 6008.0000     203.0 6008.0000     204.0 6008.0000
   205.0 6008.0000     206.0 6008.0000     207.0 6008.0000     208.0 6008.0000     209.0 6008.0000     210.0 6008.0000     211.0 6008.0000     212.0 6008.0000
   213.0 6008.0000     214.0 6008.0000     215.0 6008.0000     216.0 6008.0000     217.0 6008.0000     218.0 6008.0000     219.0 6008.0000     220.0 6008.0000
   221.0 6008.0000     222.0 6008.0000     223.0 6008.0000     224.0 6008.0000     225.0 6008.0000     226.0 6008.0000     227.0 6008.0000     228.0 6008.0000
   229.0 6008.0000     230.0 6008.0000     231.0 6008.0000     232.0 6008.0000     233.0 6008.0000     234.0 6008.0000     235.0 6008.0000     236.0 6008.0000
   237.0 6008.0000     238.0 6008.0000     239.0 6008.0000     240.0 6008.0000     241.0 6008.0000     242.0 6008.0000     243.0 6008.0000     244.0 6008.0000
   245.0 6008.0000     246.0 6008.0000     247.0 6008.0000     248.0 6008.0000     249.0 6008.0000     250.0 6008.0000     251.0 6008.0000     252.0 6008.0000
   253.0 6008.0000     254.0 6008.0000     255.0 6008.0000     256.0 6008.0000     257.0 6008.0000     258.0 6008.0000     259.0 6008.0000     260.0 6008.0000
   261.0 6008.0000     262.0 6008.0000     263.0 6008.0000     264.0 6008.0000     265.0 6008.0000     266.0 6008.0000     267.0 6008.0000     268.0 6008.0000
   269.0 6008.0000     270.0 6008.0000     271.0 6008.0000     272.0 6008.0000     273.0 6008.0000     274.0 6008.0000     275.0 6008.0000     276.0 6008.0000
   277.0 6008.0000     278.0 6008.0000     279.0 6008.0000     280.0 6008.0000     281.0 6008.0000     282.0 6008.0000     283.0 6008.0000     284.0 6008.0000
   285.0 6008.0000     286.0 6008.0000     287.0 6008.0000     288.0 6008.0000     289.0 6008.0000     290.0 6008.0000     291.0 6008.0000     292.0 6008.0000
   293.0 6008.0000     294.0 6008.0000     295.0 6008.0000     296.0 6008.0000     297.0 6008.0000     298.0 6008.0000     299.0 6008.0000     300.0 6008.0000
   301.0 6008.0000     302.0 6008.0000     303.0 6008.0000     304.0 6008.0000     305.0 6008.0000     306.0 6008.0000     307.0 6008.0000     308.0 6008.0000
   309.0 6008.0000     310.0 6008.0000     311.0 6008.0000     312.0 6008.0000     313.0 6008.0000     314.0 6008.0000     315.0 6008.0000     316.0 6008.0000
   317.0 6008.0000     318.0 6008.0000     319.0 6008.0000     320.0 6008.0000     321.0 6008.0000     322.0 6008.0000     323.0 6008.0000     324.0 6008.0000
   325.0 6008.0000     326.0 6008.0000     327.0 6008.0000     328.0 6008.0000     329.0 6008.0000     330.0 6008.0000     331.0 6008.0000     332.0 6008.0000
   333.0 6008.0000     334.0 6008.0000     335.0 6008.0000     336.0 6008.0000     337.0 6008.0000     338.0 6008.0000     339.0 6008.0000     340.0 6008.0000
   341.0 6008.0000     342.0 6008.0000     343.0 6008.0000     344.0 6008.0000     345.0 6008.0000     346.0 6008.0000     347.0 6008.0000     348.0 6008.0000
   349.0 6008.0000     350.0 6008.0000     351.0 6008.0000     352.0 6008.0000     353.0 6008.0000     354.0 6008.0000     355.0 6008.0000     356.0 6008.0000
   357.0 6008.0000     358.0 6008.0000     359.0 6008.0000     360.0 6008.0000     361.0 6008.0000     362.0 6008.0000     363.0 6008.0000     364.0 6008.0000
   365.0 6008.0000     366.0 6008.0000     367.0 6008.0000     368.0 6008.0000     369.0 6008.0000     370.0 6008.0000     371.0 6008.0000     372.0 6008.0000
   373.0 6008.0000     374.0 6008.0000     375.0 6008.0000     376.0 6008.0000     377.0 6008.0000     378.0 6008.0000     379.0 6008.0000     380.0 6008.0000
   381.0 6008.0000     382.0 6008.0000     383.0 6008.0000     384.0 6008.0000     385.0 6008.0000     386.0 6008.0000     387.0 6008.0000     388.0 6008.0000
   389.0 6008.0000     390.0 6008.0000     391.0 6008.0000     392.0 6008.0000     393.0 6008.0000     394.0 6008.0000     395.0 6008.0000     396.0 6008.0000
   397.0 6008.0000     398.0 6008.0000     399.0 6008.0000     400.0 6008.0000     401.0 6008.0000     402.0 6008.0000     403.0 6008.0000     404.0 6008.0000
   405.0 6008.0000     406.0 6008.0000     407.0 6008.0000     408.0 6008.0000     409.0 6008.0000     410.0 6008.0000     411.0 6008.0000     412.0 6008.0000
   413.0 6008.0000     414.0 6008.0000     415.0 6008.0000     416.0 6008.0000     417.0 6008.0000     418.0 6008.0000     419.0 6008.0000     420.0 6008.0000
   421.0 6008.0000     422.0 6008.0000     423.0 6008.0000     424.0 6008.0000     425.0 6008.0000     426.0 6008.0000     427.0 6008.0000     428.0 6008.0000
   429.0 6008.0000     430.0 6008.0000     431.0 6008.0000     432.0 6008.0000     433.0 6008.0000     434.0 6008.0000     435.0 6008.0000     436.0 6008.0000
   437.0 6008.0000     438.0 6008.0000     439.0 6008.0000     440.0 6008.0000     441.0 6008.0000     442.0 6008.0000     443.0 6008.0000     444.0 6008.0000
   445.0 6008.0000     446.0 6008.0000     447.0 6008.0000     448.0 6008.0000     449.0 6008.0000     450.0 6008.0000     451.0 6008.0000     452.0 6008.0000
   453.0 6008.0000     454.0 6008.0000     455.0 6008.0000     456.0 6008.0000     457.0 6008.0000     458.0 6008.0000     459.0 6008.0000     460.0 6008.0000
   461.0 6008.0000     462.0 6008.0000     463.0 6008.0000     464.0 6008.0000     465.0 6008.0000     466.0 6008.0000     467.0 6008.0000     468.0 6008.0000
   469.0 6008.0000     470.0 6008.0000     471.0 6008.0000     472.0 6008.0000     473.0 6008.0000     474.0 6008.0000     475.0 6008.0000     476.0 6008.0000
   477.0 6008.0000     478.0 6008.0000     479.0 6008.0000     480.0 6008.0000     481.0 6008.0000     482.0 6008.0000     483.0 6008.0000     484.0 6008.0000
   485.0 6008.0000     486.0 6008.0000     487.0 6008.0000     488.0 6008.0000     489.0 6008.0000     490.0 6008.0000     491.0 6008.0000     492.0 6008.0000
   493.0 6008.0000     494.0 6008.0000     495.0 6008.0000     496.0 6008.0000     497.0 6008.0000     498.0 6008.0000     499.0 6008.0000     500.0 6008.0000
 
   电磁功率      (MW)              最大值 =  6179.4355/   31.0          最小值 =  5275.0391/   15.0
     0.0 6007.9995       0.0 6007.9995       1.0 6008.0000       2.0 6008.0000       3.0 6007.9985       4.0 6007.9966       5.0 6007.9932       6.0 6007.9912
     7.0 6007.9888       8.0 6007.9834       9.0 6007.9810      10.0 6007.9761      10.0 5412.9292      11.0 5361.0645      12.0 5323.0488      13.0 5297.2920
    14.0 5281.8662      15.0 5275.0391      15.0 5872.0249      16.0 5930.5688      17.0 5980.8687      18.0 6022.8652      19.0 6057.6094      20.0 6085.9268
    21.0 6108.7876      22.0 6127.0742      23.0 6141.5483      24.0 6152.8657      25.0 6161.5635      26.0 6168.0967      27.0 6172.8433      28.0 6176.1182
    29.0 6178.1719      30.0 6179.2207      31.0 6179.4355      32.0 6178.8325      33.0 6177.8120      34.0 6176.3237      35.0 6174.4458      36.0 6172.2520
    37.0 6169.7954      38.0 6167.1255      39.0 6164.2793      40.0 6161.2837      41.0 6158.1729      42.0 6154.9600      43.0 6151.6689      44.0 6148.3096
    45.0 6144.8931      46.0 6141.4287      47.0 6137.9248      48.0 6134.3882      49.0 6130.8237      50.0 6127.2349      51.0 6123.6250      52.0 6119.9966
    53.0 6116.3516      54.0 6112.6938      55.0 6109.0220      56.0 6105.3408      57.0 6101.6489      58.0 6097.9468      59.0 6094.2334      60.0 6090.5107
    61.0 6086.7788      62.0 6083.0386      63.0 6079.2915      64.0 6075.5361      65.0 6071.7744      66.0 6068.0049      67.0 6064.2285      68.0 6060.4468
    69.0 6056.6597      70.0 6052.8726      71.0 6049.0854      72.0 6045.2974      73.0 6041.5122      74.0 6037.7334      75.0 6033.9585      76.0 6030.1938
    77.0 6026.4370      78.0 6022.6929      79.0 6018.9639      80.0 6015.2529      81.0 6011.5610      82.0 6007.8906      83.0 6004.2451      84.0 6000.6221
    85.0 5997.0327      86.0 5993.4761      87.0 5989.9561      88.0 5986.4761      89.0 5983.0366      90.0 5979.6431      91.0 5976.2983      92.0 5973.0059
    93.0 5969.7642      94.0 5966.5776      95.0 5963.4521      96.0 5960.3882      97.0 5957.3882      98.0 5954.4570      99.0 5951.5996     100.0 5948.8149
   101.0 5946.1060     102.0 5943.4766     103.0 5940.9277     104.0 5938.4609     105.0 5936.0815     106.0 5933.7915     107.0 5931.5962     108.0 5929.4946
   109.0 5927.4941     110.0 5925.5903     111.0 5923.7886     112.0 5922.0908     113.0 5920.4980     114.0 5919.0098     115.0 5917.6284     116.0 5916.3540
   117.0 5915.1865     118.0 5914.1279     119.0 5913.1821     120.0 5912.3467     121.0 5911.6211     122.0 5911.0073     123.0 5910.5049     124.0 5910.1162
   125.0 5909.8398     126.0 5909.6758     127.0 5909.6240     128.0 5909.6865     129.0 5909.8608     130.0 5910.1445     131.0 5910.5396     132.0 5911.0449
   133.0 5911.6587     134.0 5912.3784     135.0 5913.2041     136.0 5914.1343     137.0 5915.1689     138.0 5916.3027     139.0 5917.5376     140.0 5918.8726
   141.0 5920.3022     142.0 5921.8252     143.0 5923.4419     144.0 5925.1494     145.0 5926.9434     146.0 5928.8218     147.0 5930.7861     148.0 5932.8330
   149.0 5934.9575     150.0 5937.1587     151.0 5939.4331     152.0 5941.7754     153.0 5944.1880     154.0 5946.6626     155.0 5949.2017     156.0 5951.7954
   157.0 5954.4463     158.0 5957.1465     159.0 5959.8984     160.0 5962.6924     161.0 5965.5273     162.0 5968.4004     163.0 5971.3086     164.0 5974.2441
   165.0 5977.2114     166.0 5980.2046     167.0 5983.2222     168.0 5986.2573     169.0 5989.3110     170.0 5992.3770     171.0 5995.4517     172.0 5998.5342
   173.0 6001.6191     174.0 6004.7061     175.0 6007.7915     176.0 6010.8667     177.0 6013.9360     178.0 6016.9951     179.0 6020.0366     180.0 6023.0615
   181.0 6026.0645     182.0 6029.0449     183.0 6031.9980     184.0 6034.9204     185.0 6037.8130     186.0 6040.6709     187.0 6043.4912     188.0 6046.2725
   189.0 6049.0132     190.0 6051.7080     191.0 6054.3569     192.0 6056.9531     193.0 6059.5000     194.0 6061.9946     195.0 6064.4331     196.0 6066.8149
   197.0 6069.1372     198.0 6071.3965     199.0 6073.5952     200.0 6075.7324     201.0 6077.8013     202.0 6079.8037     203.0 6081.7324     204.0 6083.5923
   205.0 6085.3799     206.0 6087.0908     207.0 6088.7275     208.0 6090.2900     209.0 6091.7739     210.0 6093.1826     211.0 6094.5122     212.0 6095.7598
   213.0 6096.9263     214.0 6098.0098     215.0 6099.0083     216.0 6099.9214     217.0 6100.7432     218.0 6101.4790     219.0 6102.1284     220.0 6102.6875
   221.0 6103.1538     222.0 6103.5303     223.0 6103.8130     224.0 6104.0112     225.0 6104.1167     226.0 6104.1348     227.0 6104.0596     228.0 6103.8901
   229.0 6103.6299     230.0 6103.2759     231.0 6102.8242     232.0 6102.2817     233.0 6101.6431     234.0 6100.9097     235.0 6100.0815     236.0 6099.1602
   237.0 6098.1431     238.0 6097.0361     239.0 6095.8350     240.0 6094.5400     241.0 6093.1533     242.0 6091.6758     243.0 6090.1074     244.0 6088.4487
   245.0 6086.7012     246.0 6084.8687     247.0 6082.9502     248.0 6080.9453     249.0 6078.8525     250.0 6076.6797     251.0 6074.4258     252.0 6072.0933
   253.0 6069.6875     254.0 6067.2075     255.0 6064.6558     256.0 6062.0337     257.0 6059.3433     258.0 6056.5898     259.0 6053.7744     260.0 6050.8984
   261.0 6047.9639     262.0 6044.9731     263.0 6041.9341     264.0 6038.8438     265.0 6035.7109     266.0 6032.5371     267.0 6029.3267     268.0 6026.0796
   269.0 6022.7988     270.0 6019.4917     271.0 6016.1621     272.0 6012.8130     273.0 6009.4473     274.0 6006.0679     275.0 6002.6782     276.0 5999.2837
   277.0 5995.8877     278.0 5992.4956     279.0 5989.1108     280.0 5985.7354     281.0 5982.3779     282.0 5979.0410     283.0 5975.7300     284.0 5972.4473
   285.0 5969.1992     286.0 5965.9888     287.0 5962.8198     288.0 5959.6982     289.0 5956.6284     290.0 5953.6099     291.0 5950.6509     292.0 5947.7495
   293.0 5944.9121     294.0 5942.1455     295.0 5939.4497     296.0 5936.8291     297.0 5934.2891     298.0 5931.8281     299.0 5929.4565     300.0 5927.1704
   301.0 5924.9756     302.0 5922.8726     303.0 5920.8662     304.0 5918.9600     305.0 5917.1509     306.0 5915.4478     307.0 5913.8472     308.0 5912.3535
   309.0 5910.9697     310.0 5909.6987     311.0 5908.5381     312.0 5907.4907     313.0 5906.5547     314.0 5905.7368     315.0 5905.0337     316.0 5904.4492
   317.0 5903.9819     318.0 5903.6328     319.0 5903.4028     320.0 5903.2886     321.0 5903.2939     322.0 5903.4150     323.0 5903.6533     324.0 5904.0088
   325.0 5904.4790     326.0 5905.0654     327.0 5905.7646     328.0 5906.5771     329.0 5907.5010     330.0 5908.5371     331.0 5909.6831     332.0 5910.9365
...